Version 4
SHEET 1 1808 1688
WIRE -512 96 -880 96
WIRE 320 96 -512 96
WIRE 464 96 320 96
WIRE 624 96 560 96
WIRE 752 96 688 96
WIRE 848 96 752 96
WIRE 1040 96 928 96
WIRE 1184 96 1040 96
WIRE 1248 96 1184 96
WIRE 1424 96 1344 96
WIRE 320 112 320 96
WIRE 464 112 464 96
WIRE 560 112 560 96
WIRE 1424 128 1424 96
WIRE -880 144 -880 96
WIRE 1040 144 1040 96
WIRE 752 192 752 96
WIRE 1184 192 1184 176
WIRE 1296 192 1296 160
WIRE 1296 192 1184 192
WIRE 1296 240 1296 192
WIRE 320 256 320 192
WIRE -512 304 -512 96
WIRE 560 304 560 192
WIRE 592 304 560 304
WIRE 752 304 752 256
WIRE 752 304 592 304
WIRE 1040 304 1040 208
WIRE 1040 304 752 304
WIRE 1296 304 1040 304
WIRE 1424 304 1424 208
WIRE 1424 304 1296 304
WIRE -880 336 -880 224
WIRE -64 336 -64 272
WIRE 240 336 160 336
WIRE 272 336 240 336
WIRE 464 368 464 192
WIRE -256 384 -512 384
WIRE 160 384 160 336
WIRE 160 384 112 384
WIRE 320 416 320 352
WIRE 320 416 240 416
WIRE -352 464 -352 448
WIRE -352 464 -432 464
WIRE -256 464 -352 464
WIRE 144 464 112 464
WIRE 176 464 144 464
WIRE 208 464 176 464
WIRE 320 464 320 416
WIRE 320 464 288 464
WIRE -352 480 -352 464
WIRE 320 512 320 464
WIRE 144 544 144 464
WIRE 144 544 112 544
WIRE 176 544 176 528
WIRE -544 560 -624 560
WIRE -352 560 -544 560
WIRE -256 560 -256 544
WIRE -256 560 -352 560
WIRE -384 624 -448 624
WIRE -256 624 -304 624
WIRE 160 624 112 624
WIRE -544 640 -544 624
WIRE 320 640 320 592
WIRE 320 640 256 640
WIRE 768 656 576 656
WIRE 880 656 832 656
WIRE 928 656 880 656
WIRE 1056 656 1008 656
WIRE 1216 656 1056 656
WIRE 1392 656 1216 656
WIRE 256 672 256 640
WIRE 576 672 576 656
WIRE 320 688 320 640
WIRE 464 688 464 432
WIRE 1392 688 1392 656
WIRE -384 704 -448 704
WIRE -256 704 -304 704
WIRE 160 704 112 704
WIRE 192 704 160 704
WIRE 1056 704 1056 656
WIRE 880 752 880 656
WIRE -384 784 -448 784
WIRE -256 784 -304 784
WIRE 160 784 112 784
WIRE 496 864 496 96
WIRE 528 864 528 96
WIRE 576 864 576 752
WIRE 880 864 880 816
WIRE 1056 864 1056 768
WIRE 1392 864 1392 768
WIRE -144 896 -144 848
WIRE 16 912 16 848
WIRE 1216 912 1216 656
WIRE 304 1040 272 1040
WIRE 400 1040 384 1040
WIRE 960 1040 928 1040
WIRE 1024 1040 960 1040
WIRE 1216 1040 1216 992
WIRE 1216 1040 1024 1040
WIRE 1024 1056 1024 1040
WIRE 960 1072 960 1040
WIRE 1216 1072 1216 1040
WIRE 272 1104 256 1104
WIRE 320 1104 272 1104
WIRE 400 1104 320 1104
WIRE 272 1136 272 1104
WIRE 320 1136 320 1104
WIRE 608 1136 592 1136
WIRE 672 1152 656 1152
WIRE 960 1152 960 1136
WIRE 960 1152 928 1152
WIRE 656 1168 656 1152
WIRE -896 1200 -896 1136
WIRE 960 1216 960 1152
WIRE 1024 1216 1024 1200
WIRE 1024 1216 960 1216
WIRE 608 1232 608 1136
WIRE 800 1232 800 1216
WIRE 1216 1232 1216 1152
WIRE -320 1280 -320 1248
WIRE -320 1392 -320 1360
WIRE -896 1472 -896 1408
FLAG -896 1280 0
FLAG -896 1136 Vaux
FLAG -64 272 Vaux
FLAG 320 688 COM
FLAG 176 544 0
FLAG 256 672 0
FLAG 16 912 COM
FLAG -144 896 0
FLAG -448 784 0
FLAG -448 704 0
FLAG -448 624 0
FLAG 160 784 Sout
FLAG 192 704 FB
FLAG -544 640 0
FLAG -432 528 0
FLAG -624 640 0
FLAG -352 448 Vref
FLAG -512 464 0
FLAG -880 336 COM
FLAG 464 688 COM
FLAG 1392 864 SEC
FLAG 1216 1232 SEC
FLAG 576 864 SEC
FLAG 880 864 SEC
FLAG 1056 864 SEC
FLAG 800 1232 SEC
FLAG 656 1232 SEC
FLAG 608 1232 SEC
FLAG -896 1408 Vbias
FLAG 800 976 Vbias
FLAG 272 1040 Vaux
FLAG 320 1216 0
FLAG 176 1104 FB
FLAG -320 1248 COM
FLAG -320 1392 SEC
FLAG 272 1232 0
FLAG 208 1184 Vref
FLAG 592 384 0
FLAG -896 1552 SEC
SYMBOL res 1376 672 R0
SYMATTR InstName R2
SYMATTR Value {RL}
SYMBOL cap 1040 704 R0
SYMATTR InstName C1
SYMATTR Value {Cf}
SYMATTR SpiceLine Rser=2m
SYMBOL diode 480 432 R180
WINDOW 0 24 64 Left 2
WINDOW 3 24 0 Left 2
SYMATTR InstName D2
SYMATTR Value D1
SYMBOL diode 768 672 R270
WINDOW 0 32 32 VTop 2
WINDOW 3 0 32 VBottom 2
SYMATTR InstName D1
SYMATTR Value D1
SYMBOL diode 896 816 R180
WINDOW 0 24 64 Left 2
WINDOW 3 24 0 Left 2
SYMATTR InstName D3
SYMATTR Value D1
SYMBOL ind 912 672 R270
WINDOW 0 32 56 VTop 2
WINDOW 3 5 56 VBottom 2
SYMATTR InstName L4
SYMATTR Value {Lf}
SYMATTR SpiceLine Rser=50m
SYMBOL ind2 480 208 R180
WINDOW 0 36 80 Left 2
WINDOW 3 36 40 Left 2
SYMATTR InstName ind3
SYMATTR Value {L3}
SYMATTR Type ind
SYMATTR SpiceLine Rser=20m
SYMBOL ind2 560 656 R0
SYMATTR InstName ind2
SYMATTR Value {L2}
SYMATTR Type ind
SYMATTR SpiceLine Rser=20m
SYMBOL ind2 304 96 R0
SYMATTR InstName ind1
SYMATTR Value {L1}
SYMATTR Type ind
SYMATTR SpiceLine Rser=20m
SYMBOL bv -880 128 R0
SYMATTR InstName B1
SYMATTR Value V={Vi}
SYMBOL res 1408 112 R0
SYMATTR InstName R1
SYMATTR Value 36
SYMBOL cap 1024 144 R0
SYMATTR InstName C2
SYMATTR Value {Caux}
SYMATTR SpiceLine Rser=2m
SYMBOL diode 624 112 R270
WINDOW 0 32 32 VTop 2
WINDOW 3 0 32 VBottom 2
SYMATTR InstName D4
SYMATTR Value D1
SYMBOL ind2 544 96 R0
SYMATTR InstName ind4
SYMATTR Value {L4}
SYMATTR Type ind
SYMATTR SpiceLine Rser=20m
SYMBOL npn 1248 160 R270
SYMATTR InstName Q1
SYMATTR Value 2N2222
SYMBOL res 1168 80 R0
SYMATTR InstName R3
SYMATTR Value 1.5k
SYMBOL zener 1312 304 R180
WINDOW 0 24 64 Left 2
WINDOW 3 24 0 Left 2
SYMATTR InstName D6
SYMATTR Value MMBZ16VALY
SYMBOL diode 768 256 R180
WINDOW 0 24 64 Left 2
WINDOW 3 24 0 Left 2
SYMATTR InstName D5
SYMATTR Value D1
SYMBOL ind 832 112 R270
WINDOW 0 32 56 VTop 2
WINDOW 3 5 56 VBottom 2
SYMATTR InstName L1
SYMATTR Value {Laux}
SYMATTR SpiceLine Rser=50m
SYMBOL voltage -896 1184 R0
WINDOW 123 0 0 Left 0
WINDOW 39 0 0 Left 0
SYMATTR InstName V1
SYMATTR Value 12
SYMBOL res 304 496 R0
SYMATTR InstName Rs
SYMATTR Value 10m
SYMBOL res 304 448 R90
WINDOW 0 0 56 VBottom 2
WINDOW 3 32 56 VTop 2
SYMATTR InstName R4
SYMATTR Value 10
SYMBOL cap 160 464 R0
SYMATTR InstName C3
SYMATTR Value 2.2n
SYMBOL res 144 608 R0
SYMATTR InstName R5
SYMATTR Value 33k
SYMBOL res -288 768 R90
WINDOW 0 0 56 VBottom 2
WINDOW 3 32 56 VTop 2
SYMATTR InstName R6
SYMATTR Value 200K
SYMBOL res -400 720 R270
WINDOW 0 32 56 VTop 2
WINDOW 3 0 56 VBottom 2
SYMATTR InstName R7
SYMATTR Value 100K
SYMBOL res -400 640 R270
WINDOW 0 32 56 VTop 2
WINDOW 3 0 56 VBottom 2
SYMATTR InstName R8
SYMATTR Value 200k
SYMBOL cap -560 560 R0
WINDOW 0 47 22 Left 2
WINDOW 3 29 64 Left 2
SYMATTR InstName C4
SYMATTR Value 0.22µ
SYMBOL cap -448 464 R0
SYMATTR InstName C5
SYMATTR Value 0.1µ
SYMBOL res -368 464 R0
SYMATTR InstName R9
SYMATTR Value 11K
SYMBOL res -640 544 R0
WINDOW 0 -40 31 Left 2
WINDOW 3 -76 73 Left 2
SYMATTR InstName R10
SYMATTR Value 12.4K
SYMBOL res -528 288 R0
SYMATTR InstName R11
SYMATTR Value 240K
SYMBOL res -528 368 R0
SYMATTR InstName R12
SYMATTR Value {240K/24}
SYMBOL PowerProducts\\LT4430 800 1088 R0
SYMATTR InstName U2
SYMBOL res 1200 896 R0
SYMATTR InstName R13
SYMATTR Value 200K
SYMBOL res 1200 1056 R0
SYMATTR InstName R14
SYMATTR Value 27.2K
SYMBOL cap 944 1072 R0
SYMATTR InstName C6
SYMATTR Value 10p
SYMBOL res 1008 1104 R0
SYMATTR InstName R15
SYMATTR Value 8.2K
SYMBOL cap 1008 1056 R0
SYMATTR InstName C7
SYMATTR Value 4.7n
SYMBOL Optos\\4N25 496 1104 M0
SYMATTR InstName U3
SYMBOL cap 672 1168 M0
WINDOW 3 19 44 Left 2
SYMATTR InstName C8
SYMATTR Value 10n
SYMBOL res 688 1024 R90
WINDOW 0 0 56 VBottom 2
WINDOW 3 32 56 VTop 2
SYMATTR InstName R16
SYMATTR Value 470
SYMBOL voltage -896 1456 R0
WINDOW 123 0 0 Left 0
WINDOW 39 0 0 Left 0
SYMATTR InstName V2
SYMATTR Value 5
SYMBOL res 400 1024 R90
WINDOW 0 0 56 VBottom 2
WINDOW 3 32 56 VTop 2
SYMATTR InstName R17
SYMATTR Value 220
SYMBOL res 304 1120 R0
SYMATTR InstName R18
SYMATTR Value 1.2k
SYMBOL res 272 1088 R90
WINDOW 0 0 56 VBottom 2
WINDOW 3 32 56 VTop 2
SYMATTR InstName R19
SYMATTR Value 22K
SYMBOL nmos 272 256 R0
SYMATTR InstName M1
SYMATTR Value BSC900N20NS3
SYMBOL pnp 208 1232 M180
SYMATTR InstName Q2
SYMATTR Value BC856B
SYMBOL PowerProducts\\LT1952-1 -64 576 R0
SYMATTR InstName U1
SYMBOL res 576 288 R0
SYMATTR InstName R20
SYMATTR Value 1Meg
SYMBOL res -336 1264 R0
SYMATTR InstName R21
SYMATTR Value 1Meg
SYMBOL res 224 320 R0
SYMATTR InstName R22
SYMATTR Value 10k
TEXT -1248 -152 Left 2 !.model NMOS SW(Ron=25m Roff=1Meg Vt=.5 Vh=-.4)
TEXT -1248 -112 Left 2 !.model D1 D(Ron=20m Roff=100G Vfwd=0.1)
TEXT -1240 -200 Left 2 !.tran 0 0.011 0
TEXT -1232 -72 Left 2 !K1 ind1 ind2 ind3 ind4 1
TEXT -1248 80 Left 2 !.param L1 185.6u\n.param L2  26.1u \n.param L3 185.6u\n.param L4 104.4u\n.param fs  200k\n.param Cf 15u\n.param RL 0.625\n.param Lf 16u\n.param Laux 20u\n.param Caux 20u\n.param Vi 60\n.param D 0.22
