Version 4
SHEET 1 1688 692
WIRE 320 96 -48 96
WIRE 464 96 320 96
WIRE 736 96 544 96
WIRE 848 96 800 96
WIRE 896 96 848 96
WIRE 1024 96 976 96
WIRE 1152 96 1024 96
WIRE 320 112 320 96
WIRE 464 112 464 96
WIRE 544 112 544 96
WIRE 1152 128 1152 96
WIRE -48 144 -48 96
WIRE 1024 144 1024 96
WIRE 848 192 848 96
WIRE 272 208 176 208
WIRE 320 208 320 192
WIRE 416 208 400 208
WIRE 272 224 272 208
WIRE 400 224 400 208
WIRE 272 288 272 272
WIRE 272 288 176 288
WIRE -48 304 -48 224
WIRE 192 304 -48 304
WIRE 320 304 320 288
WIRE 320 304 192 304
WIRE 464 304 464 256
WIRE 464 304 320 304
WIRE 544 304 544 192
WIRE 544 304 464 304
WIRE 848 304 848 256
WIRE 848 304 544 304
WIRE 1024 304 1024 208
WIRE 1024 304 848 304
WIRE 1152 304 1152 208
WIRE 1152 304 1024 304
FLAG 192 304 0
SYMBOL voltage -48 128 R0
WINDOW 123 0 0 Left 0
WINDOW 39 24 124 Left 2
SYMATTR InstName V1
SYMATTR Value 50
SYMBOL res 1136 112 R0
SYMATTR InstName R2
SYMATTR Value {RL}
SYMBOL cap 1008 144 R0
SYMATTR InstName C1
SYMATTR Value {Cf}
SYMATTR SpiceLine Rser=0
SYMBOL voltage 176 192 R0
WINDOW 123 0 0 Left 0
WINDOW 39 0 0 Left 0
WINDOW 3 -206 135 Left 2
SYMATTR Value PULSE(0 1 0 1n 1n {D*1/fs} {1/fs})
SYMATTR InstName V2
SYMBOL diode 480 256 R180
WINDOW 0 24 64 Left 2
WINDOW 3 24 0 Left 2
SYMATTR InstName D2
SYMATTR Value D1
SYMBOL diode 736 112 R270
WINDOW 0 32 32 VTop 2
WINDOW 3 0 32 VBottom 2
SYMATTR InstName D1
SYMATTR Value D1
SYMBOL diode 864 256 R180
WINDOW 0 24 64 Left 2
WINDOW 3 24 0 Left 2
SYMATTR InstName D3
SYMATTR Value D1
SYMBOL ind 880 112 R270
WINDOW 0 32 56 VTop 2
WINDOW 3 5 56 VBottom 2
SYMATTR InstName L4
SYMATTR Value {Lf}
SYMBOL ind2 480 208 R180
WINDOW 0 36 80 Left 2
WINDOW 3 36 40 Left 2
SYMATTR InstName ind3
SYMATTR Value {L3}
SYMATTR Type ind
SYMATTR SpiceLine Rser=0.1m
SYMBOL ind2 528 96 R0
SYMATTR InstName ind2
SYMATTR Value {L2}
SYMATTR Type ind
SYMATTR SpiceLine Rser=0.1m
SYMBOL ind2 304 96 R0
SYMATTR InstName ind1
SYMATTR Value {L1}
SYMATTR Type ind
SYMATTR SpiceLine Rser=0.1m
SYMBOL sw 320 304 M180
SYMATTR InstName sw
SYMATTR Value NMOS
TEXT -88 472 Left 2 !.model NMOS SW(Ron=0.1m Roff=1Meg Vt=.5 Vh=-.4)
TEXT -88 512 Left 2 !.model D1 D(Ron=0.0001 Roff=100G Vfwd=0)
TEXT -80 424 Left 2 !.tran 0 0.011 0.01 0.01u
TEXT -72 552 Left 2 !K1 ind1 ind2 ind3 1
TEXT 760 424 Left 2 !.param L1 100u\n.param L2 6.25u \n.param L3 100u\n.param fs  200k\n.param Cf 100u\n.param RL 1\n.param Lf 7.5u\n.param D 0.4
